&NAMDIM
  NDGLG=128,
/
&NAMGEM
  RLOCEN=0.000,
  RMUCEN=1.000,
  RSTRET=1.0,
/
&NAMRGRI
  NRGRI( 1)=20,
  NRGRI( 2)=30,
  NRGRI( 3)=40,
  NRGRI( 4)=48,
  NRGRI( 5)=54,
  NRGRI( 6)=64,
  NRGRI( 7)=72,
  NRGRI( 8)=80,
  NRGRI( 9)=90,
  NRGRI(10)=90,
  NRGRI(11)=100,
  NRGRI(12)=108,
  NRGRI(13)=120,
  NRGRI(14)=120,
  NRGRI(15)=128,
  NRGRI(16)=144,
  NRGRI(17)=144,
  NRGRI(18)=144,
  NRGRI(19)=150,
  NRGRI(20)=160,
  NRGRI(21)=160,
  NRGRI(22)=180,
  NRGRI(23)=180,
  NRGRI(24)=180,
  NRGRI(25)=192,
  NRGRI(26)=192,
  NRGRI(27)=192,
  NRGRI(28)=200,
  NRGRI(29)=200,
  NRGRI(30)=216,
  NRGRI(31)=216,
  NRGRI(32)=216,
  NRGRI(33)=240,
  NRGRI(34)=240,
  NRGRI(35)=240,
  NRGRI(36)=240,
  NRGRI(37)=240,
  NRGRI(38)=240,
  NRGRI(39)=240,
  NRGRI(40)=250,
  NRGRI(41)=250,
  NRGRI(42)=250,
  NRGRI(43)=250,
  NRGRI(44)=256,
  NRGRI(45)=256,
  NRGRI(46)=256,
  NRGRI(47)=256,
  NRGRI(48)=256,
  NRGRI(49)=256,
  NRGRI(50)=256,
  NRGRI(51)=256,
  NRGRI(52)=256,
  NRGRI(53)=256,
  NRGRI(54)=256,
  NRGRI(55)=256,
  NRGRI(56)=256,
  NRGRI(57)=256,
  NRGRI(58)=256,
  NRGRI(59)=256,
  NRGRI(60)=256,
  NRGRI(61)=256,
  NRGRI(62)=256,
  NRGRI(63)=256,
  NRGRI(64)=256,
/
&NAM_COVER
  LRM_RIVER=.TRUE.,
  XRM_COVER=0.01,
  XRM_LAKE=0.05,
  YCOVER='ecoclimap',
  YCOVERFILETYPE='DIRECT',
/
&NAM_DATA_FLAKE
  XMAX_DEPTH=60.,
  XUNIF_EXTCOEF_WATER=0.5,
  YWATER_DEPTH='lake_depth',
  YWATER_DEPTHFILETYPE='DIRECT',
/
&NAM_DIAG_SURF_ATMN
  LDIAG_MIP=.TRUE.,
/
&NAM_ECOCLIMAP2
  LCLIM_LAI=.TRUE.,
/
&NAM_FLAKEN
  CFLK_ALB='TA96',
  CFLK_FLUX='FLAKE',
  LSEDIMENTS=.FALSE.,
  LSKINTEMP=.TRUE.,
/
&NAM_FRAC
  CFNAM_NATURE='frac_nat.asc',
  CFNAM_SEA='frac_sea.asc',
  CFNAM_WATER='frac_wat.asc',
  CFTYP_NATURE='ASCLLV',
  CFTYP_SEA='ASCLLV',
  CFTYP_WATER='ASCLLV',
  LECOCLIMAP=.TRUE.,
  XUNIF_TOWN=0.0,
/
&NAM_IO_OFFLINE
  CPGDFILE='PGD',
  CPREPFILE='PREP',
  CSURF_FILETYPE='FA',
  CTIMESERIES_FILETYPE = 'FA',
  LFAGMAP=.TRUE.,
  LFAGMAP_IN=.TRUE.,
  LPRINT=.TRUE.,
  NHALO=0,
/
&NAM_IO_SURF_ARO
  CFILETYPE       = 'FA',
/
&NAM_ISBA
  CISBA='DIF',
  CPEDO_FUNCTION='CH78',
  CPHOTO='AST',
  LTR_ML=.TRUE.,
  NGROUND_LAYER=14,
  NPATCH=12,
  YCLAY='clay',
  YCLAYFILETYPE='DIRECT',
  YCTI='topo_index',
  YCTIFILETYPE='DIRECT',
  YPERM='perm_glo_10km',
  YPERMFILETYPE='DIRECT',
  YSAND='sand',
  YSANDFILETYPE='DIRECT',
  YSOCFILETYPE='DIRECT',
  YSOC_SUB='soc_sub',
  YSOC_TOP='soc_top',
/
&NAM_ISBA_AGSN
  CNITRO_DILU='ESM2',
  LDOWNREGU=.TRUE.,
  XCNLIM=-0.036,
/
&NAM_ISBA_SNOWN
  CSNOWDRIFT='DFLT',
/
&NAM_ISBAN
  CC1DRY='DEF ',
  CCPSURF='DRY',
  CDIFSFCOND='DEF ',
  CSCOND='PL98',
  CSNOWRES='RIL',
  CSOILFRZ='LWT',
  LGLACIER=.TRUE.,
/
&NAM_PGD_ARRANGE_COVER
  LTOWN_TO_ROCK=.TRUE.,
  LWATER_TO_NATURE=.TRUE.,
/
&NAM_PGD_GRID
  CGRID='GAUSS     ',
/
&NAM_PGD_SCHEMES
  CNATURE='ISBA  ',
  CSEA='SEAFLX',
  CTOWN='NONE  ',
  CWATER='FLAKE ',
/
&NAM_PREP_FLAKE
  LCLIM_LAKE=.FALSE.,
/
&NAM_PREP_ISBA_SNOW
  CSNOW='3-L',
  LSNOW_IDEAL=.FALSE.,
  NSNOW_LAYER=12,
/
&NAM_PREP_SEAFLUX
  CSEAICE_SCHEME='GELATO',
  XSIC_UNIF=0.0,
  XSSS_UNIF=0.0,
  XSST_UNIF=280.16,
/
&NAM_PREP_SURF_ATM
  CFILE='PREP_IN',
  CFILEPGD='PGD_IN',
  CFILEPGDTYPE='FA',
  CFILETYPE='FA',
  NDAY=1,
  NMONTH=1,
  NYEAR=1850,
  XTIME=0.,
/
&NAM_SEABATHY
  XUNIF_SEABATHY=0.,
/
&NAM_SEAFLUXN
  CINTERPOL_SST='LINEAR',
  CSEA_ALB='RS14',
  CSEA_FLUX='ECUME6',
  LPRECIP=.FALSE.,
  LPWG=.FALSE.,
/
&NAM_SEAICEN
  CINTERPOL_SIC='LINEAR',
  LDIAG_MISC_SEAICE=.TRUE.,
  XFREEZING_SST=-0.95,
  XSI_FLX_DRV=-20.,
/
&NAM_SGH_ISBAN
  CHORT='CM6 ',
  CRAIN='SGH ',
  CRUNOFF='SGH ',
  LSOC=.TRUE.,
/
&NAM_SSON
  CROUGH='Z01D',
/
&NAM_SURF_ATM
  LNOSOF=.TRUE.,
  LVERTSHIFT=.FALSE.,
  XDELTA_MAX=0.9,
  XRIMAX=0.2,
  XVZ0CM=1.E-5,
/
&NAM_SURF_CSTS
  XALBCOEF_TA96=0.036,
  XALBSCA_WAT=0.065,
  XALBSEAICE=0.71,
  XALBWAT=0.065,
  XALBWATICE=0.40,
  XEMISSN=0.99,
  XEMISWAT=0.96,
  XEMISWATICE=0.97,
  XHGLA=1.0E3,
  XWSNV=2.0,
/
&NAM_WRITE_SURF_ATM
  LNOWRITE_CANOPY=.TRUE.,
  LNOWRITE_TEXFILE=.TRUE.,
/
&NAM_ZS
  YZS='topo',
  YZSFILETYPE='DIRECT',
/
