&NAEPHLI
/
&NAEPHY
/
&NAERAD
  RCCO2=336.6049E-06,
  RCCH4=1566.1609E-09,
  RCN2O=300.3930E-09,
  RCCFC11=357.7625E-12,
  RCCFC12=286.4942E-12,
  LHGHG=.TRUE.,
  LRRTM=.TRUE.,
  LSRTM=.TRUE.,
  LUSEPRE2017RAD=.FALSE.,
  NAERMACC=0,
  NHINCSOL=0,
  NINHOM=1,
  NMCICA=0,
  NOVLP=1,
  NRADFR=-1,
  NRADIP=2,
  NRADLP=2,
  NSW=6,
  RLWINHF=0.9,
  RSWINHF=0.71,
  STBKG=0.045,
  TRBKG=0.03,
/
&NAETLDIAG
/
&NAMAFN
/
&NAMARG
  LECMWF=.FALSE.,
  NCONF=1,
  NSUPERSEDE=1,
/
&NAMARPHY
  CCOUPLING='I',
  LMSE=.TRUE.,
/
&NAMCA
/
&NAMCAPE
  GCAPEPSD=0.5,
  LADAE=.TRUE.,
  LMCAPEA=.TRUE.,
/
&NAMCFU
  LCUMFU=.TRUE.,
  LFDUTP=.TRUE.,
  LFPLC=.TRUE.,
  LFPLS=.TRUE.,
  LFR=.TRUE.,
  LFRRC=.TRUE.,
  LFSF=.TRUE.,
  LFSOIL=.TRUE.,
  LNEBPAR=.TRUE.,
  LRAYD=.TRUE.,
  LRAYS=.TRUE..,
  LSTRT=.TRUE.,
/
&NAMCHET
/
&NAMCHK
/
&NAMCLDP
/
&NAMCOM
/
&NAMCT0
  LCONSERV=.TRUE.,
  LCORWAT=.TRUE.,
  LFBDAP=.FALSE,
  NFPOS=1,
  NFRCORM=1,
  NFRGDI=1,
  NFRHIS=480,
  NFRPOS=24,
  NFRSDI=1,
  NFRSFXHIS=480,
  NHISTS(0)=0,
  NPOSTS(0)=0,
  NSFXHISTS(0)=0,
  NSPPR=0,
/
&NAMCT1
  LRFILAF=.FALSE.,
  N1POS=0,
  N1RES=1,
  N1SFXHIS=1,
/
&NAMCUMF
  DETRPEN=0.0001,
  RCAPQADV=0.,
  RDXMAX=1.5,
  RDXMIN=1.,
  RMFDEPS=0.2,
  RPRCON=0.002,
/
&NAMCUMFS
/
&NAMCVER
  LVERTFE=.TRUE.,
  NVFE_TYPE=3,
/
&NAMCVMNH
  LSMOOTH=.FALSE.,
  OTADJS=10800.,
  XATPERT=500.,
  XAW=1.,
  XBTPERT=0.5,
  XBW=0.5,
  XCDEPTH=1.,
  XCDEPTH_D=4000.,
  XDTPERT=0.3,
  XENTR=0.01,
/
&NAMDDH
/
&NAMDIM
  NPROMA=-16,
/
&NAMDIM_TRAJ
/
&NAMDPHY
  NTOZ2D=0,
  NTOZ3D=0,
  NVCLIS=0,
/
&NAMDVISI
/
&NAMDWET
/
&NAMDYN
  LADVF=.TRUE.,
  LVWENO_T=.TRUE.,
  NITMP=4,
  NTLAG=3,
  NVLAG=3,
  NWLAG=3,
  RATIO_HDI_TOP=20.,
  RCMSLP0=1.,
  RDAMPDIV=4.,
  RDAMPQ=0.,
  RDAMPT=0.,
  RDAMPVOR=50.,
  REPS1=0.,
  REPS2=0.,
  REPSM1=0.,
  REPSM2=0.,
  REPSP1=0.,
  RW2TLFF=1.,
  SIPR=100000.,
  SITR=350.,
  SLEVDH1=0.15,
  SLEVDH2=0.08,
  VESL=0.,
  XIDT=0.,
/
&NAMDYNA
  LRHSVWENO=.TRUE.,
  LSETTLS=.TRUE.,
  LSETTLST=.TRUE.,
  LSETTLSV=.TRUE.,
  LSLAG=.TRUE.,
  LSPRT=.TRUE.,
  LTWOTL=.TRUE.,
/
&NAMDYNA_STATIC
/
&NAMDYNCORE
/
&NAMENKF
/
&NAMFA
  NBITCS=30,
  NBITPG=30,
  NSTRON=-1,
  NVGRIB=123,
  YFACLF%NBITS=6,
  YFAIRAD%NBITS=12,
  YFALRAD%NBITS=12,
  YFATKE%NBITS=24,
  YFA_XSIC%CLNAME='SEA.ICE.COVER   ',  
/
&NAMFPC
  CFP2DF(1)='SURFPRESSION',
  CFP2DF(2)='MSLPRESSURE',
  CFP2DF(3)='SURFTOT.WAT.VAPO',
  CFP3DF(1)='GEOPOTENTIEL',
  CFP3DF(10)='CLOUD_FRACTI',
  CFP3DF(11)='TKE',
  CFP3DF(2)='TEMPERATURE',
  CFP3DF(3)='VENT_ZONAL',
  CFP3DF(4)='VENT_MERIDIEN',
  CFP3DF(5)='HUMI.SPECIFI',
  CFP3DF(6)='HUMI_RELATIVE',
  CFP3DF(7)='VITESSE_VERTICALE',
  CFP3DF(8)='RAD_LIQUID_WATER',
  CFP3DF(9)='RAD_SOLID_WATER',
  CFPCFU(1)='ATMONEBUL.TOTALE',
  CFPCFU(10)='SURFPREC.EAU.GEC',
  CFPCFU(11)='SURFPREC.NEI.GEC',
  CFPCFU(12)='SOMMFLU.RAY.SOLA',
  CFPCFU(13)='SURFFLU.RAY.SOLA',
  CFPCFU(14)='SOMMFLU.RAY.THER',
  CFPCFU(15)='SURFFLU.RAY.THER',
  CFPCFU(16)='SURFFLU.LAT.MTOT',
  CFPCFU(17)='SURFFLU.CHA.SENS',
  CFPCFU(18)='SURFRAYT SOL CL',
  CFPCFU(19)='SURFRAYT THER CL',
  CFPCFU(2)='ATMONEBUL.CONVEC',
  CFPCFU(20)='SURFRAYT SOLA DE',
  CFPCFU(21)='SURFRAYT THER DE',
  CFPCFU(22)='ATMOHUMI TOTALE',
  CFPCFU(23)='ATMOHUMI SOLIDE',
  CFPCFU(24)='ATMOHUMI LIQUIDE',
  CFPCFU(25)='SOMMRAYT SOL CL',
  CFPCFU(26)='SOMMRAYT THER CL',
  CFPCFU(27)='TOPRAYT DIR SOM ',
  CFPCFU(3)='ATMONEBUL.HAUTE',
  CFPCFU(4)='ATMONEBUL.MOYENN',
  CFPCFU(5)='ATMONEBUL.BASSE',
  CFPCFU(6)='SURFTENS.TOTA.ZO',
  CFPCFU(7)='SURFTENS.TOTA.ME',
  CFPCFU(8)='SURFPREC.EAU.CON',
  CFPCFU(9)='SURFPREC.NEI.CON',
  CFPFMT='GAUSS',
  CFPPHY(1)='SURFTEMPERATURE',
  CFPPHY(2)='PROFTEMPERATURE',
  LTRACEFP=.TRUE.,
  NFPCLI=0,
  NRFP3S=15,
  RFP3P=100000.,95000.,92500.,90000.,85000.,80000.,75000.,70000.,65000.,60000.,55000.,50000.,45000.,40000.,35000.,30000.,27500.,25000.,22500.,20000.,17500.,15000.,12500.,10000.,7000.,5000.,3000.,2000.,1000.,700.,500.,300.,200.,100.,
/
&NAMFPD
/
&NAMFPF
/
&NAMFPG
/
&NAMFPIOS
/
&NAMGEM
/
&NAMGFL
  LTRCMFBC=.TRUE.,
  LTRCMFIX_PS=.TRUE.,
  YA_NL%LGP=.TRUE.,
  YA_NL%LREQOUT=.TRUE.,
  YA_NL%NREQIN=0,
  YIRAD_NL%LGP=.TRUE.,
  YIRAD_NL%LREQOUT=.TRUE.,
  YIRAD_NL%NREQIN=0,
  YI_NL%LADV=.TRUE.,
  YI_NL%LGP=.TRUE.,
  YI_NL%LGPINGP=.TRUE.,
  YI_NL%LPHY=.FALSE.,
  YI_NL%LQM=.TRUE.,
  YI_NL%LREQOUT=.TRUE.,
  YI_NL%LT1=.TRUE.,
  YI_NL%NREQIN=1,
  YLRAD_NL%LGP=.TRUE.,
  YLRAD_NL%LREQOUT=.TRUE.,
  YLRAD_NL%NREQIN=0,
  YL_NL%LADV=.TRUE.,
  YL_NL%LGP=.TRUE.,
  YL_NL%LGPINGP=.TRUE.,
  YL_NL%LPHY=.FALSE.,
  YL_NL%LQM=.TRUE.,
  YL_NL%LREQOUT=.TRUE.,
  YL_NL%LT1=.TRUE.,
  YL_NL%NREQIN=1,
  YQ_NL%LVWENO=.TRUE.,
  YR_NL%LADV=.TRUE.,
  YR_NL%LGP=.TRUE.,
  YR_NL%LGPINGP=.TRUE.,
  YR_NL%LPHY=.FALSE.,
  YR_NL%LQM=.TRUE.,
  YR_NL%LREQOUT=.TRUE.,
  YR_NL%LT1=.TRUE.,
  YR_NL%NREQIN=1,
  YS_NL%LADV=.TRUE.,
  YS_NL%LGP=.TRUE.,
  YS_NL%LGPINGP=.TRUE.,
  YS_NL%LPHY=.FALSE.,
  YS_NL%LQM=.TRUE.,
  YS_NL%LREQOUT=.TRUE.,
  YS_NL%LT1=.TRUE.,
  YS_NL%NREQIN=1,
  YTKE_NL%LADV=.TRUE.,
  YTKE_NL%LGP=.TRUE.,
  YTKE_NL%LGPINGP=.TRUE.,
  YTKE_NL%LQM=.TRUE.,
  YTKE_NL%LREQOUT=.TRUE.,
  YTKE_NL%LT1=.TRUE.,
  YTKE_NL%NCOUPLING=0,
  YTKE_NL%NREQIN=1,
/
&NAMGRIB
  NCYCLE=48,
/
&NAMGWD
/
&NAMGWDIAG
/
&NAMGWWMS
/
&NAMIAU
/
&NAMINI
/
&NAMINTFLEX
/
&NAMIOS
/
&NAMMCC
/
&NAMMCUF
/
&NAMMETHOX
/
&NAMNORGWD
/
&NAMNUD
/
&NAMNUDGLH
/
&NAMOOPS
/
&NAMOPH
  CFNHWF='ECHIS',
  LINC=.FALSE.,
/
&NAMPAR0
  MBX_SIZE=2048000000,
  MP_TYPE=2,
  NOUTPUT=1,
  NPRINTLEV=1,
  NPROC=AUTO,
/
&NAMPAR1
  LEQ_REGIONS=.TRUE.,
  LSLONDEM=.TRUE.,
  LSPLIT=.TRUE.,
  NCOMBFLEN=1638400,
  NSTRIN=AUTO,
  NSTROUT=AUTO,
/
&NAMPARAR
/
&NAMPERTPAR
/
&NAMPHMSE
  LPGDFWR=.FALSE.,
/
&NAMPHY
  CGMIXLEN='AY',
  LADJCLD=.TRUE.,
  LAERODES=.FALSE.,
  LAEROLAN=.FALSE.,
  LAEROSEA=.FALSE.,
  LAEROSOO=.FALSE.,
  LCONDWT=.TRUE.,
  LCVPPKF=.TRUE.,
  LCVRA=.FALSE.,
  LCVTDK=.TRUE.,
  LDIFCONS=.TRUE.,
  LECDEEP=.FALSE.,
  LECSHAL=.FALSE.,
  LECT=.TRUE.,
  LECTFL=.TRUE.,
  LECTFL0=.TRUE.,
  LEDMFI=.FALSE.,
  LEDR=.TRUE.,
  LFLUSO=.TRUE.,
  LFPCOR=.TRUE.,
  LGLACIERS=.TRUE.,
  LGPCMT=.FALSE.,
  LNCVPGY=.FALSE.,
  LNEBECT=.FALSE.,
  LNEWD=.TRUE.,
  LNOIAS=.TRUE.,
  LO3ABC=.TRUE.,
  LO3FL=.TRUE.,
  LOZONE=.FALSE.,
  LPROCLD=.TRUE.,
  LRAY=.FALSE.,
  LRAYFM=.TRUE.,
  LRAYLU=.TRUE.,
  LRNUMX=.TRUE.,
  LRRMES=.TRUE.,
  LSMITH_CDEV=.TRUE.,
  LSSD=.TRUE.,
  LSTRA=.FALSE.,
  LVGSN=.TRUE.,
  LZ0HSREL=.TRUE.,
  NCALLRAD=2,
/
&NAMPHY0
  AECLS4=3.,
  ALMAVE=0.,
  ALMAVX=1000.,
  ECTMAX=35.,
  EDD=1.,
  EDK=1.,
  GCVHMIN=30000.,
  GCVNU=0.00005,
  GCVOMCA=-1.918,
  GCVOMCC=1.35,
  GCVOMDPS=2000.,
  GCVOMGE=1.,
  GCVOMGQ=0.,
  GCVOMGS=1.,
  GCVOMGSX=0.5,
  GCVPSI=1.,
  GCVPSIE=1.,
  GCVRHMAX=1.,
  GCVRHMIN=0.5,
  GDDEVA=0.2,
  GWDCD=5.4,
  GWDSE=0.005,
  GWDVALI=0.5,
  QSNEBC=-1.,
  QSSUSC=5.,
  RCVEVAP=0.25,
  REFLKUO=5000.,
  REVASX=2.0D-7,
  RFACNSM=1.2,
  RFLCHCE=0.25,
  RHCRIT2=0.95,
  RICRLM=0.5,
  RKFBTAU=7200.,
  RPRTH=1.,
  RQCRNS=0.,
  RQICRSN=1.,
  RQICRT2=0.,
  RQICVMIN=0.00001,
  RQLCR=0.0005,
  SXNBCO=1.,
  TDDGP=0.6,
  TFVI=0.04,
  TFVL=0.02,
  TFVLD=0.02,
  TFVS=1.5,
  TUDGP=0.6,
  USURIC=0.175,
  USURICL=1.,
  USURID=0.1,
  VZ0CM=0.0001,
  XBLM=8.5,
  XMAXLM=5000.,
  XMINLM=10.,
/
&NAMPHY1
  ALBMIN=0.65,
  ALCRIN=0.81,
  ALRCN1=0.01,
  EMMGLA=0.98,
  EMMMER=0.99,
/
&NAMPHY2
  XMULAF=0.,
/
&NAMPHY3
/
&NAMPHYDS
/
&NAMPPC
/
&NAMPPVI
/
&NAMRCOEF
/
&NAMRES
  NFRRES=999999,
  NRESTS(0)=1,1,
/
&NAMRINC
/
&NAMRIP
  CSTOP=AUTO,
  TSTEP=900.,
/
&NAMRIP0
  LASTRF=.TRUE.,
/
&NAMRLX
/
&NAMSATS
/
&NAMSCEN
   RI0=1361.7148,
/
&NAMSCM
/
&NAMSENS
/
&NAMSFXCMP
  CFLDNAME(1)='????????????????',
  NBBITS(1)=24,
  NVGRIBSFX=0,
/
&NAMSIMPHL
/
&NAMSPNG
/
&NAMSPP
/
&NAMSPSDT
/
&NAMSTA
/
&NAMSTOPH
/
&NAMTESTVAR
/
&NAMTOPH
   RCLX=2350.8630E-12,
  ETCVIM=1000.,
  ETNEBU=1000.,
  ETPLUI=1000.,
  XDRMTK=2.0D-8,
  XDRMTP=800.,
  XDRMTX=4.0D-7,
  XDRMUK=1.0D-7,
  XDRMUP=800.,
  XDRMUX=0.000002,
/
&NAMTRAJ
/
&NAMTRAJP
/
&NAMTRANS
  LFFTW=.TRUE.,
/
&NAMTRANS0
/
&NAMVAR
/
&NAMVAREPS
/
&NAMVDF
/
&NAMVDOZ
/
&NAMVRTL
/
&NAMVV0
/
&NAMVWRK
/
&NAMXFU
  LTXNEB=.TRUE.,
  LTXQICE=.TRUE.,
  LTXQLI=.TRUE.,
  LXCLS=.TRUE.,
  LXFU=.TRUE.,
  LXHHCLS=.TRUE.,
  LXNEBPA=.TRUE.,
  LXNEBTT=.TRUE.,
!  LXNUVCLS=.TRUE.,
  LXQCLS=.TRUE.,
!  LXSNOWDEPTH=.TRUE.,
  LXSOIL=.TRUE.,
  LXTTCLS=.TRUE.,
/
&NAM_DISTRIBUTED_VECTORS
/
&NAM_NEBN
/
&NAM_PARAM_ICEN
/
&NAM_TURBN
/
&NAPHLC
/
&RADIATION
  AEROSOL_OPTICS_OVERRIDE_FILE_NAME="aerosol_CNRM-CM6.nc",
  CLOUD_FRACTION_THRESHOLD=0.000001,
  CLOUD_INHOM_DECORR_SCALING=0.5,
  CLOUD_MIXING_RATIO_THRESHOLD=1.00D-9,
  DIRECTORY_NAME='.',
  DO_CLEAR=.TRUE.,
  DO_FU_LW_ICE_OPTICS_BUG=.FALSE.,
  DO_LW_AEROSOL_SCATTERING=.FALSE.,
  DO_LW_CLOUD_SCATTERING=.TRUE.,
  DO_LW_DERIVATIVES=.TRUE.,
  DO_SAVE_GPOINT_FLUX=.FALSE.,
  DO_SAVE_RADIATIVE_PROPERTIES=.FALSE.,
  DO_SAVE_SPECTRAL_FLUX=.FALSE.,
  DO_SURFACE_SW_SPECTRAL_FLUX=.TRUE.,
  DO_SW_DELTA_SCALING_WITH_GASES=.TRUE.,
  GAS_MODEL_NAME='RRTMG-IFS',
  ICE_MODEL_NAME='Fu-IFS',
  IVERBOSE=1,
  IVERBOSESETUP=3,
  LIQUID_MODEL_NAME='Slingo',
  LW_SOLVER_NAME='McICA',
  OVERLAP_SCHEME_NAME='Exp-Exp',
  SW_SOLVER_NAME='McICA',
  USE_AEROSOLS=.TRUE.,
  USE_BETA_OVERLAP=.FALSE.,
/
